{
    "@graph": [
        {
            "@id": "gnd:10194333-7",
            "sameAs": "Technische Universit\u00e4t Hamburg-Harburg, Institut f\u00fcr Konstruktion und Festigkeit von Schiffen"
        },
        {
            "@id": "gnd:1037192761",
            "sameAs": "Grabe, J\u00fcrgen"
        },
        {
            "@id": "gnd:1054667799",
            "sameAs": "Martens, Ingo"
        },
        {
            "@id": "gnd:108609197",
            "sameAs": "Lehmann, Eike"
        },
        {
            "@id": "gnd:140779663",
            "sameAs": "Kr\u00fcger, Stefan"
        },
        {
            "@id": "gnd:4070262-5",
            "sameAs": "Deformation"
        },
        {
            "@id": "gnd:4191598-7",
            "sameAs": "Schiffskollision"
        },
        {
            "@id": "gnd:4228469-7",
            "sameAs": "Bug"
        },
        {
            "@id": "gnd:4511937-5",
            "sameAs": "Online-Ressource"
        },
        {
            "@id": "gnd:4730556-3",
            "sameAs": "Energieaufnahme"
        },
        {
            "@id": "https://www.tib.eu/de/suchen/id/TIBKAT%3A798388889",
            "@type": "bibo:Thesis",
            "P1053": "Online-Ressource (PDF-Datei: XI, 93 S., 4.187KB)",
            "description": "Ill., graph. Darst.",
            "identifier": [
                "(firstid)GBV:798388889",
                "(ppn)798388889"
            ],
            "publisher": "Techn. Univ. Hamburg-Harburg, Univ.-Bibl.",
            "subject": [
                "FEM explicit",
                "(classificationName=bk, id=106420577)55.40 - Schiffstechnik, Schiffbau",
                "(classificationName=ddc-dbn)620",
                "Schiffskollision",
                "Kollisionsberechnung",
                "Collision calculation",
                "Bulbous bow",
                "Ship collision",
                "(classificationName=linseach:mapping)ver",
                "Kollisionsversuch",
                "LS-DYNA",
                "Bugwulst",
                "Crash test",
                "FEM explizit",
                "(classificationName=rvk)ZO 6230"
            ],
            "title": "Konstruktive Aspekte beim Entwurf von Bugw\u00fclsten zur Verbesserung des Energieaufnahmeverm\u00f6gens bei Schiffskollisionen",
            "abstract": [
                "Diese Arbeit untersucht konstruktive Alternativen beim Entwurf von Bugw\u00fclsten, die auf ein m\u00f6glichst vorteilhaftes Verformungsverhalten des Bugwulstes im Kollisionsfall abzielen. Damit soll ein stumpferer Eindringvorgang beim gerammten Schiff bei deutlicher Erh\u00f6hung der kritischen Kollisionsenergie erreicht werden. Dieser Effekt wurde zun\u00e4chst mit einer eigens errichteten Versuchsanlage f\u00fcr Bugwulstkollisionen gegen Schiffsseitenstrukturen im Modellma\u00dfstab von etwa 1:3 untersucht. Die absolute Bewertung der Gro\u00dfausf\u00fchrung erfolgt anschlie\u00dfend durch Simulationen in Originalgr\u00f6\u00dfe mit einer durch die Versuche abgesicherten Berechnungstechnik. Die Dimensionierung derartiger leicht verformbarer Bugw\u00fclste unter \u00fcblichen Betriebslasten ist ebenfalls Gegenstand der Untersuchung.",
                "This work examines alternative bulbous bow designs, aiming an advantageous deformation behavior in case of a collision. Thus penetration shall be blunted and critical collision energy level shall significantly be increased. This effect was examined with a test rig especially erected for collision tests with bulbous bows to be driven against ship side structures in a model scale of about 1:3. Examination of the true scale situation was carried out subsequently by using simulations that have been validated with the experimental data. Dimensioning of Bulbous bows with intentionally deformation capability was also carried out with respect to operational loads."
            ],
            "alternative": "Structural aspects of bulbous bow designs with enhanced energy absorption capability in ship collisions",
            "contributor": [
                "gnd:1037192761",
                "gnd:140779663",
                "gnd:108609197"
            ],
            "dcterms:contributor": "Technische Informationsbibliothek (TIB)",
            "creator": [
                "gnd:1054667799",
                "gnd:10194333-7"
            ],
            "isPartOf": "(collectioncode)GBV-ODiss",
            "issued": "2014",
            "language": "http://id.loc.gov/vocabulary/iso639-1/de",
            "license": "open access",
            "medium": "rda:termList/RDACarrierType/1018",
            "dcterms:subject": [
                {
                    "@id": "gnd:4191598-7"
                },
                {
                    "@id": "gnd:4070262-5"
                },
                {
                    "@id": "gnd:4511937-5"
                },
                {
                    "@id": "gnd:4228469-7"
                },
                {
                    "@id": "gnd:4730556-3"
                }
            ],
            "volume": "679",
            "P30128": "Schriftenreihe Schiffbau",
            "P60163": "Hamburg"
        }
    ],
    "@id": "urn:x-arq:DefaultGraphNode",
    "@context": {
        "issued": "http://purl.org/dc/terms/issued",
        "abstract": "http://purl.org/dc/terms/abstract",
        "subject": "http://purl.org/dc/elements/1.1/subject",
        "isPartOf": "http://purl.org/dc/terms/isPartOf",
        "contributor": {
            "@id": "http://purl.org/dc/terms/contributor",
            "@type": "@id"
        },
        "P60163": "http://www.rdaregistry.info/Elements/u/#P60163",
        "medium": {
            "@id": "http://purl.org/dc/terms/medium",
            "@type": "@id"
        },
        "title": "http://purl.org/dc/elements/1.1/title",
        "creator": {
            "@id": "http://purl.org/dc/terms/creator",
            "@type": "@id"
        },
        "publisher": "http://purl.org/dc/elements/1.1/publisher",
        "P1053": "http://iflastandards.info/ns/isbd/elements/P1053",
        "P30128": "http://www.rdaregistry.info/Elements/m/#P30128",
        "volume": "http://purl.org/ontology/bibo/volume",
        "identifier": "http://purl.org/dc/elements/1.1/identifier",
        "description": "http://purl.org/dc/elements/1.1/description",
        "alternative": "http://purl.org/dc/terms/alternative",
        "language": {
            "@id": "http://purl.org/dc/terms/language",
            "@type": "@id"
        },
        "license": "http://purl.org/dc/terms/license",
        "sameAs": "http://www.w3.org/2002/07/owl#sameAs",
        "umbel": "http://umbel.org/umbel#",
        "rdau": "http://www.rdaregistry.info/Elements/u/#",
        "owl": "http://www.w3.org/2002/07/owl#",
        "dcterms": "http://purl.org/dc/terms/",
        "bibo": "http://purl.org/ontology/bibo/",
        "rdam": "http://www.rdaregistry.info/Elements/m/#",
        "gnd": "http://d-nb.info/gnd/",
        "isbd": "http://iflastandards.info/ns/isbd/elements/",
        "rda": "http://rdvocab.info/",
        "doi": "https://doi.org/"
    }
}