{
    "@graph": [
        {
            "@id": "https://www.tib.eu/de/suchen/id/TIBKAT%3A1067367381",
            "@type": "bibo:Book",
            "P1053": "Online-Ressource (XI, 346 Seiten)",
            "creator": "Wagner, Marcus",
            "description": [
                "Erworben aus Studienqualit\u00e4tsmitteln",
                "Campusweiter Zugriff (Universit\u00e4t Hannover) - Vervielf\u00e4ltigungen (z.B. Kopien, Downloads) sind nur von einzelnen Kapiteln oder Seiten und nur zum eigenen wissenschaftlichen Gebrauch erlaubt. Keine Weitergabe an Dritte. Kein systematisches Downloaden durch Robots.",
                "Illustrationen, Diagramme"
            ],
            "identifier": [
                "(ppn)1067367381",
                "(isbn13)9783658250522",
                "(firstid)GBV:1067367381",
                "(doi)10.1007/978-3-658-25052-2"
            ],
            "publisher": "Springer Vieweg",
            "subject": [
                "(classificationName=ddc)620.0042",
                "(classificationName=loc)TA174",
                "Engineering design",
                "Engineering Design",
                "(classificationName=linseach:mapping)tec"
            ],
            "title": "Lineare und nichtlineare FEM : eine Einf\u00fchrung mit Anwendungen in der Umformsimulation mit LS-DYNA\u00ae",
            "abstract": [
                "Einleitung -- Einf\u00fchrung in die lineare FEM -- Mechanische Gr\u00f6\u00dfen der Strukturmechanik -- Mathematische Modellierung \u00fcber Energieprinzipien -- Diskretisierung mit Finiten Elementen -- Finite-Elemente-Klassen -- Mathematische und numerische Aspekte der FEM -- Lineare zeitabh\u00e4ngige FEM -- Geometrische Nichtlinearit\u00e4t -- Materielle Nichtlinearit\u00e4t -- Kontaktmodellierung -- Gleichungsl\u00f6sung bei nichtlinearen statischen Problemen -- Zeitintegration von nichtlinearen dynamischen Problemen -- Blechumformsimulation -- Anhang: Mathematische Hilfsmittel -- Einf\u00fchrung in die Simulation mit LS-DYNA",
                "Dieses Lehrbuch bringt im ersten Teil leicht verst\u00e4ndlich die Merkmale und Eigenschaften linearer finiter Elemente aus dem Bereich der Elastostatik und Dynamik und erl\u00e4utert Vorgehensweisen bei der Erstellung von Simulationsmodellen. Im zweiten Teil liegt der Schwerpunkt auf nichtlinearen zeitabh\u00e4ngigen Vorg\u00e4ngen und L\u00f6sungsverfahren. Praxisbeispiele aus der Umformtechnik werden anschaulich mit der Software LS-DYNA\u00ae gel\u00f6st. Der Fokus liegt auf einer Erkl\u00e4rung der Zusammenh\u00e4nge, die f\u00fcr Anwender kommerzieller Software notwendig sind. Theoretische Grundlagen werden in dem Umfang dargestellt, der f\u00fcr das Verst\u00e4ndnis der Benutzung eines Programms notwendig ist. Die aktuelle Auflage wurde um weitere \u00dcbungsaufgaben erg\u00e4nzt, die Musterl\u00f6sungen aller Aufgaben wurden stark erweitert und mehrere Kapitel wurden inhaltlich \u00fcberarbeitet. Der Inhalt Einf\u00fchrung in die lineare FEM - Mechanische Gr\u00f6\u00dfen der Strukturmechanik - Mathematische Modellierung \u00fcber Energieprinzipien - Diskretisierung mit Finiten Elementen - Finite-Elemente-Klassen - Mathematische und numerische Aspekte der FEM - Geometrische Nichtlinearit\u00e4t - Materielle Nichtlinearit\u00e4t - Kontaktmodellierung - Gleichungsl\u00f6sung bei nichtlinearen statischen Problemen - Zeitintegration von nichtlinearen dynamischen Problemen - Blechumformsimulation - Anhang: Mathematische Hilfsmittel - Einf\u00fchrung in die Simulation mit LS-DYNA\u00ae Die Zielgruppen - Studierende aus Bachelor- und Masterstudieng\u00e4ngen der Ingenieurwissenschaften an Hochschulen und Technischen Universit\u00e4ten - Ingenieure und Techniker Der Autor Prof. Dr.-Ing. Marcus Wagner lehrt an der Ostbayerischen Technischen Hochschule Regensburg Finite Elemente, Ingenieurinformatik und Maschinendynamik und leitet die Labore Finite-Elemente sowie Maschinendynamik und Strukturanalyse"
            ],
            "contributor": "Technische Informationsbibliothek (TIB)",
            "isPartOf": [
                "(collectioncode)ZDB-2-SEB",
                "(collectioncode)ZDB-2-STI"
            ],
            "issued": "2019",
            "language": "http://id.loc.gov/vocabulary/iso639-1/de",
            "license": "commercial licence",
            "medium": "rda:termList/RDACarrierType/1018",
            "isLike": "doi:10.1007/978-3-658-25052-2",
            "P30128": [
                "SpringerLink",
                "B\u00fccher"
            ],
            "P60163": "Wiesbaden"
        }
    ],
    "@id": "urn:x-arq:DefaultGraphNode",
    "@context": {
        "subject": "http://purl.org/dc/elements/1.1/subject",
        "P30128": "http://www.rdaregistry.info/Elements/m/#P30128",
        "creator": "http://purl.org/dc/elements/1.1/creator",
        "identifier": "http://purl.org/dc/elements/1.1/identifier",
        "language": {
            "@id": "http://purl.org/dc/terms/language",
            "@type": "@id"
        },
        "P60163": "http://www.rdaregistry.info/Elements/u/#P60163",
        "abstract": "http://purl.org/dc/terms/abstract",
        "contributor": "http://purl.org/dc/terms/contributor",
        "title": "http://purl.org/dc/elements/1.1/title",
        "P1053": "http://iflastandards.info/ns/isbd/elements/P1053",
        "description": "http://purl.org/dc/elements/1.1/description",
        "isLike": {
            "@id": "http://umbel.org/umbel#isLike",
            "@type": "@id"
        },
        "isPartOf": "http://purl.org/dc/terms/isPartOf",
        "issued": "http://purl.org/dc/terms/issued",
        "publisher": "http://purl.org/dc/elements/1.1/publisher",
        "medium": {
            "@id": "http://purl.org/dc/terms/medium",
            "@type": "@id"
        },
        "license": "http://purl.org/dc/terms/license",
        "umbel": "http://umbel.org/umbel#",
        "rdau": "http://www.rdaregistry.info/Elements/u/#",
        "owl": "http://www.w3.org/2002/07/owl#",
        "dcterms": "http://purl.org/dc/terms/",
        "bibo": "http://purl.org/ontology/bibo/",
        "rdam": "http://www.rdaregistry.info/Elements/m/#",
        "gnd": "http://d-nb.info/gnd/",
        "isbd": "http://iflastandards.info/ns/isbd/elements/",
        "rda": "http://rdvocab.info/",
        "doi": "https://doi.org/"
    }
}