{
    "@graph": [
        {
            "@id": "https://www.tib.eu/de/suchen/id/TIBKAT%3A182686766X",
            "@type": "bibo:Book",
            "P1053": "1 Online-Ressource(X, 210 p. 1 illus.)",
            "creator": "Lecheler, Stefan",
            "description": [
                "Campusweiter Zugriff (Universit\u00e4t Hannover) - Vervielf\u00e4ltigungen (z.B. Kopien, Downloads) sind nur von einzelnen Kapiteln oder Seiten und nur zum eigenen wissenschaftlichen Gebrauch erlaubt. Keine Weitergabe an Dritte. Kein systematisches Downloaden durch Robots.",
                "Erworben aus Studienqualit\u00e4tsmitteln"
            ],
            "identifier": [
                "(ppn)182686766X",
                "(isbn13)9783658384531",
                "(doi)10.1007/978-3-658-38453-1",
                "(firstid)KEP:083305238"
            ],
            "publisher": "Springer Fachmedien Wiesbaden",
            "subject": [
                "(classificationName=linseach:mapping)fer",
                "(classificationName=linseach:mapping)phy",
                "Fluid mechanics.",
                "(classificationName=ddc)620.1064"
            ],
            "title": "Computational Fluid Dynamics : Getting Started Quickly With ANSYS CFX 18 Through Simple Examples",
            "abstract": [
                "Aim and structure of the book -- Conservation equations of fluid mechanics -- Discretization -- Computational meshes -- Solution procedure -- Procedure of a numerical flow calculation -- Three application examples.",
                "This textbook and exercise book is aimed at future users of computational fluid dynamics software. In addition to the comprehensibly presented basics, the focus is on technical examples treated in detail with supplementary practical hints. Comprehension questions including applications give the beginner confidence in fundamental relationships. The original 4th German edition has been adapted to the latest program version ANSYS 18.1. The content Aim and structure of the book Conservation equations of fluid mechanics Discretization Computational meshes Solution methods Sequence of a numerical flow calculation Three application examples The target groups Engineering students at colleges and universities Engineers who carry out flow calculations Lecturers who deal with questions on numerical flow calculations The author Dr.-Ing. Stefan Lecheler is Professor of Thermodynamics in the Faculty of Mechanical Engineering at the Bundeswehr University in Munich. There, he also teaches computational fluid dynamics in the Master's program Computer Aided Engineering."
            ],
            "contributor": "Technische Informationsbibliothek (TIB)",
            "isPartOf": [
                "(collectioncode)ZDB-2-SXP",
                "(collectioncode)ZDB-2-SEB",
                "(collectioncode)ZDB-2-PHA"
            ],
            "issued": "2022",
            "language": "http://id.loc.gov/vocabulary/iso639-1/en",
            "license": "commercial licence",
            "medium": "rda:termList/RDACarrierType/1018",
            "isLike": "doi:10.1007/978-3-658-38453-1",
            "P60163": "Wiesbaden"
        }
    ],
    "@id": "urn:x-arq:DefaultGraphNode",
    "@context": {
        "isLike": {
            "@id": "http://umbel.org/umbel#isLike",
            "@type": "@id"
        },
        "abstract": "http://purl.org/dc/terms/abstract",
        "identifier": "http://purl.org/dc/elements/1.1/identifier",
        "isPartOf": "http://purl.org/dc/terms/isPartOf",
        "subject": "http://purl.org/dc/elements/1.1/subject",
        "description": "http://purl.org/dc/elements/1.1/description",
        "language": {
            "@id": "http://purl.org/dc/terms/language",
            "@type": "@id"
        },
        "creator": "http://purl.org/dc/elements/1.1/creator",
        "contributor": "http://purl.org/dc/terms/contributor",
        "title": "http://purl.org/dc/elements/1.1/title",
        "publisher": "http://purl.org/dc/elements/1.1/publisher",
        "license": "http://purl.org/dc/terms/license",
        "P1053": "http://iflastandards.info/ns/isbd/elements/P1053",
        "P60163": "http://www.rdaregistry.info/Elements/u/#P60163",
        "medium": {
            "@id": "http://purl.org/dc/terms/medium",
            "@type": "@id"
        },
        "issued": "http://purl.org/dc/terms/issued",
        "umbel": "http://umbel.org/umbel#",
        "rdau": "http://www.rdaregistry.info/Elements/u/#",
        "owl": "http://www.w3.org/2002/07/owl#",
        "dcterms": "http://purl.org/dc/terms/",
        "bibo": "http://purl.org/ontology/bibo/",
        "rdam": "http://www.rdaregistry.info/Elements/m/#",
        "gnd": "http://d-nb.info/gnd/",
        "isbd": "http://iflastandards.info/ns/isbd/elements/",
        "rda": "http://rdvocab.info/",
        "doi": "https://doi.org/"
    }
}