{
    "@graph": [
        {
            "@id": "gnd:4055072-2",
            "sameAs": "Simulation"
        },
        {
            "@id": "gnd:4058076-3",
            "sameAs": "Strömung"
        },
        {
            "@id": "gnd:4064700-6",
            "sameAs": "Wasserbau"
        },
        {
            "@id": "gnd:4269205-2",
            "sameAs": "Kolk"
        },
        {
            "@id": "https://www.tib.eu/de/suchen/id/TIBKAT%3A359873898",
            "@type": "bibo:Thesis",
            "P1053": "XIV, 138 S.",
            "creator": "Weilbeer, Holger",
            "description": "Ill., graph. Darst.",
            "identifier": [
                "(ppn)359873898",
                "(firstid)GBV:359873898"
            ],
            "subject": [
                "(classificationName=bk, id=106422006)56.30 - Wasserbau",
                "(classificationName=linseach:mapping)bau",
                "(classificationName=bk, id=181570335)56.03 - Methoden im Bauingenieurwesen"
            ],
            "title": "Numerische Simulation von Strömung und Kolkung an Wasserbauwerken",
            "abstract": [
                "Das Ziel dieser Arbeit besteht in der numerischen Simulation der turbulenten Freispiegel-strömung und der Kolkentwicklung an einem Kreiszylinder und Buhnen als typische Re-präsentanten von Wasserbauwerken.Hierzu wurden verschiedene Arbeiten in den Bereichen der Turbulenz- und der Sediment-transportmodellierung durchgeführt. Sie bestanden in der Implementierung und der Veı&apos;il`i-kation von zwei Varianten des k-tu-Modells in TELEMAC-3D und in der Entwicklungspezieller Ansätze und Algorithmen zur Kolksimulation. Für die Kopplung des dreidimen-sionalen Strömungsmodells mit dem Morphologiemodul wurden unterschiedliche Strate-gien untersucht. Auch hier waren bestimmte Weiterentwicklungen erforderlich, wie z.B.die Sohlschubspannungen des dreidimensionalen Modells als Schnittstelle zum Morpholo-giemodul zu nutzen.ln der Anwendung der Modelle zur Strömungssimulalion und zur Kolkentwicklung amKreiszylinder und an Buhnen waren alle typischen Strömungsphänomene und erwartetenmorphodynamisehen Reaktionen in den Modellergebníssen zu sehen.Hinsichtlich der simulierten Kolkentwieklungen kann zusammenfassend festgestellt wer-›den, daß es möglich ist, mit den entwickelten Modellen ein realistisches morphodynami-sches Verhalten bis hin zum Erreichen einer Endkolktiefe zu modellieren. Die Ergebnissehängen in hohem Maße von der Qualität der Transportformulierung und gegebenenfallsweiterer spezieller Modifikationen ab. Die Entwicklung eines Algorithmus zum Ausgleichzu steiler Bodengradienten erwies sich als essentiell für eine erfolgreiche Kolksimulation.",
                "AbstractThe goal of this thesis was the further development ol` a three-dimensional numerical mo-del and its application to turbulenl free surface flows and flow-induced scour processes ontypical hydraulic structures such as circular cylinders and groynes.Major emphasis was placed on turbulence and sediment transport modeling. Two versionsof a k-w-model were implemented in the TELEMAC-3D code and verified using openchannel flow results. Furthermore special algorithms regarding the simulation of a scourhole were formulated and implemented. Several strategies were investigated for couplingthe three-dimensional flow model with the morphological model. The three-dimensionalbed shear stresses calculated from the flow model were used lo force the morphologicalmodel.The models were appliedto flow simulation and to scout* generation around circular eylin-ders and groynes. All typically obseıved flow phenomena and morphodynamical changeswere found inthe results.It is concluded that a realistic morphodynamical behaviour up towards a convergence toa final scour depth can be simulated using the numerical models. The results depend stron-gly on the transport rate and several specific modifications of the morphological model.An important feature is an algorithm to consider a sandslide due to sleep bottom gradients."
            ],
            "contributor": "Technische Informationsbibliothek (TIB)",
            "issued": "2001",
            "language": "http://id.loc.gov/vocabulary/iso639-1/de",
            "license": "commercial licence",
            "medium": "rda:termList/RDACarrierType/1044",
            "dcterms:subject": [
                {
                    "@id": "gnd:4269205-2"
                },
                {
                    "@id": "gnd:4058076-3"
                },
                {
                    "@id": "gnd:4064700-6"
                },
                {
                    "@id": "gnd:4055072-2"
                }
            ],
            "tableOfContents": "http://www.gbv.de/dms/tib-ub-hannover/359873898.pdf",
            "volume": "66",
            "P30128": "Bericht / Institut für Strömungsmechanik und Elektronisches Rechnen im Bauwesen der Universität Hannover",
            "P60163": "Hannover"
        }
    ],
    "@id": "urn:x-arq:DefaultGraphNode",
    "@context": {
        "abstract": "http://purl.org/dc/terms/abstract",
        "subject": "http://purl.org/dc/elements/1.1/subject",
        "title": "http://purl.org/dc/elements/1.1/title",
        "license": "http://purl.org/dc/terms/license",
        "contributor": "http://purl.org/dc/terms/contributor",
        "volume": "http://purl.org/ontology/bibo/volume",
        "medium": {
            "@id": "http://purl.org/dc/terms/medium",
            "@type": "@id"
        },
        "creator": "http://purl.org/dc/elements/1.1/creator",
        "identifier": "http://purl.org/dc/elements/1.1/identifier",
        "P60163": "http://www.rdaregistry.info/Elements/u/#P60163",
        "P30128": "http://www.rdaregistry.info/Elements/m/#P30128",
        "description": "http://purl.org/dc/elements/1.1/description",
        "tableOfContents": "http://purl.org/dc/terms/tableOfContents",
        "issued": "http://purl.org/dc/terms/issued",
        "P1053": "http://iflastandards.info/ns/isbd/elements/P1053",
        "language": {
            "@id": "http://purl.org/dc/terms/language",
            "@type": "@id"
        },
        "sameAs": "http://www.w3.org/2002/07/owl#sameAs",
        "umbel": "http://umbel.org/umbel#",
        "rdau": "http://www.rdaregistry.info/Elements/u/#",
        "owl": "http://www.w3.org/2002/07/owl#",
        "dcterms": "http://purl.org/dc/terms/",
        "bibo": "http://purl.org/ontology/bibo/",
        "rdam": "http://www.rdaregistry.info/Elements/m/#",
        "gnd": "http://d-nb.info/gnd/",
        "isbd": "http://iflastandards.info/ns/isbd/elements/",
        "rda": "http://rdvocab.info/",
        "doi": "https://doi.org/"
    }
}