{
    "@graph": [
        {
            "@id": "gnd:10194333-7",
            "sameAs": "Technische Universität Hamburg-Harburg, Institut für Konstruktion und Festigkeit von Schiffen"
        },
        {
            "@id": "gnd:1037192761",
            "sameAs": "Grabe, Jürgen"
        },
        {
            "@id": "gnd:1054667799",
            "sameAs": "Martens, Ingo"
        },
        {
            "@id": "gnd:108609197",
            "sameAs": "Lehmann, Eike"
        },
        {
            "@id": "gnd:140779663",
            "sameAs": "Krüger, Stefan"
        },
        {
            "@id": "gnd:4070262-5",
            "sameAs": "Deformation"
        },
        {
            "@id": "gnd:4191598-7",
            "sameAs": "Schiffskollision"
        },
        {
            "@id": "gnd:4228469-7",
            "sameAs": "Bug"
        },
        {
            "@id": "gnd:4511937-5",
            "sameAs": "Online-Ressource"
        },
        {
            "@id": "gnd:4730556-3",
            "sameAs": "Energieaufnahme"
        },
        {
            "@id": "https://www.tib.eu/de/suchen/id/TIBKAT%3A800131797",
            "@type": "bibo:Thesis",
            "P1053": "XI, 93 S.",
            "description": "graph. Darst.",
            "identifier": [
                "(isbn13)9783892206798",
                "(firstid)GBV:800131797",
                "(ppn)800131797"
            ],
            "publisher": "Techn. Univ. Hamburg-Harburg",
            "subject": [
                "Crash test",
                "Kollisionsberechnung",
                "Bulbous bow",
                "(classificationName=bk, id=106420577)55.40 - Schiffstechnik, Schiffbau",
                "Kollisionsversuch",
                "(classificationName=ddc-dbn)620",
                "LS-DYNA",
                "FEM explicit",
                "Ship collision",
                "Schiffskollision",
                "(classificationName=linseach:mapping)ver",
                "(classificationName=rvk)ZO 6230",
                "Bugwulst",
                "FEM explizit",
                "Collision calculation"
            ],
            "title": "Konstruktive Aspekte beim Entwurf von Bugwülsten zur Verbesserung des Energieaufnahmevermögens bei Schiffskollisionen",
            "abstract": [
                "This work examines alternative bulbous bow designs, aiming an advantageous deformation behavior in case of a collision. Thus penetration shall be blunted and critical collision energy level shall significantly be increased. This effect was examined with a test rig especially erected for collision tests with bulbous bows to be driven against ship side structures in a model scale of about 1:3. Examination of the true scale situation was carried out subsequently by using simulations that have been validated with the experimental data. Dimensioning of Bulbous bows with intentionally deformation capability was also carried out with respect to operational loads.",
                "Diese Arbeit untersucht konstruktive Alternativen beim Entwurf von Bugwülsten, die auf ein möglichst vorteilhaftes Verformungsverhalten des Bugwulstes im Kollisionsfall abzielen. Damit soll ein stumpferer Eindringvorgang beim gerammten Schiff bei deutlicher Erhöhung der kritischen Kollisionsenergie erreicht werden. Dieser Effekt wurde zunächst mit einer eigens errichteten Versuchsanlage für Bugwulstkollisionen gegen Schiffsseitenstrukturen im Modellmaßstab von etwa 1:3 untersucht. Die absolute Bewertung der Großausführung erfolgt anschließend durch Simulationen in Originalgröße mit einer durch die Versuche abgesicherten Berechnungstechnik. Die Dimensionierung derartiger leicht verformbarer Bugwülste unter üblichen Betriebslasten ist ebenfalls Gegenstand der Untersuchung."
            ],
            "alternative": "Structural aspects of bulbous bow designs with enhanced energy absorption capability in ship collisions",
            "contributor": [
                "gnd:108609197",
                "gnd:140779663",
                "gnd:1037192761"
            ],
            "dcterms:contributor": "Technische Informationsbibliothek (TIB)",
            "creator": [
                "gnd:10194333-7",
                "gnd:1054667799"
            ],
            "issued": "2014",
            "language": "http://id.loc.gov/vocabulary/iso639-1/de",
            "license": "commercial licence",
            "medium": "rda:termList/RDACarrierType/1044",
            "dcterms:subject": [
                {
                    "@id": "gnd:4191598-7"
                },
                {
                    "@id": "gnd:4070262-5"
                },
                {
                    "@id": "gnd:4228469-7"
                },
                {
                    "@id": "gnd:4730556-3"
                },
                {
                    "@id": "gnd:4511937-5"
                }
            ],
            "tableOfContents": "http://www.gbv.de/dms/tib-ub-hannover/800131797.pdf",
            "volume": "679",
            "P30128": "Schriftenreihe Schiffbau",
            "P60163": "Hamburg"
        }
    ],
    "@id": "urn:x-arq:DefaultGraphNode",
    "@context": {
        "subject": "http://purl.org/dc/elements/1.1/subject",
        "title": "http://purl.org/dc/elements/1.1/title",
        "abstract": "http://purl.org/dc/terms/abstract",
        "identifier": "http://purl.org/dc/elements/1.1/identifier",
        "P30128": "http://www.rdaregistry.info/Elements/m/#P30128",
        "P1053": "http://iflastandards.info/ns/isbd/elements/P1053",
        "volume": "http://purl.org/ontology/bibo/volume",
        "medium": {
            "@id": "http://purl.org/dc/terms/medium",
            "@type": "@id"
        },
        "P60163": "http://www.rdaregistry.info/Elements/u/#P60163",
        "publisher": "http://purl.org/dc/elements/1.1/publisher",
        "creator": {
            "@id": "http://purl.org/dc/terms/creator",
            "@type": "@id"
        },
        "license": "http://purl.org/dc/terms/license",
        "contributor": {
            "@id": "http://purl.org/dc/terms/contributor",
            "@type": "@id"
        },
        "alternative": "http://purl.org/dc/terms/alternative",
        "language": {
            "@id": "http://purl.org/dc/terms/language",
            "@type": "@id"
        },
        "issued": "http://purl.org/dc/terms/issued",
        "description": "http://purl.org/dc/elements/1.1/description",
        "tableOfContents": "http://purl.org/dc/terms/tableOfContents",
        "sameAs": "http://www.w3.org/2002/07/owl#sameAs",
        "umbel": "http://umbel.org/umbel#",
        "rdau": "http://www.rdaregistry.info/Elements/u/#",
        "owl": "http://www.w3.org/2002/07/owl#",
        "dcterms": "http://purl.org/dc/terms/",
        "bibo": "http://purl.org/ontology/bibo/",
        "rdam": "http://www.rdaregistry.info/Elements/m/#",
        "gnd": "http://d-nb.info/gnd/",
        "isbd": "http://iflastandards.info/ns/isbd/elements/",
        "rda": "http://rdvocab.info/",
        "doi": "https://doi.org/"
    }
}