{
    "@graph": [
        {
            "@id": "gnd:1051585252",
            "sameAs": "Lecheler, Stefan"
        },
        {
            "@id": "gnd:4077970-1",
            "sameAs": "Str\u00f6mungsmechanik"
        },
        {
            "@id": "gnd:4211838-4",
            "sameAs": "ANSYS"
        },
        {
            "@id": "gnd:4690080-9",
            "sameAs": "Numerische Str\u00f6mungssimulation"
        },
        {
            "@id": "https://www.tib.eu/de/suchen/id/TIBKAT%3A1657236587",
            "@type": "bibo:Book",
            "P1053": "Online-Ressource (X, 200 S. 133 Abb., 84 Abb. in Farbe, online resource)",
            "description": "Campusweiter Zugriff (Universit\u00e4t Hannover) - Vervielf\u00e4ltigungen (z.B. Kopien, Downloads) sind nur von einzelnen Kapiteln oder Seiten und nur zum eigenen wissenschaftlichen Gebrauch erlaubt. Keine Weitergabe an Dritte. Kein systematisches Downloaden durch Robots.",
            "identifier": [
                "(firstid)BSZ:495986577",
                "(isbn13)9783658191924",
                "(doi)10.1007/978-3-658-19192-4",
                "(ppn)1657236587"
            ],
            "publisher": "Springer Vieweg",
            "subject": [
                "(classificationName=rvk)UF 4600",
                "Engineering",
                "(classificationName=rvk)UF 4050",
                "(classificationName=loc)TA357-359",
                "(classificationName=bk, id=181571455)50.03 - Methoden und Techniken der Ingenieurwissenschaften",
                "Fluid mechanics",
                "(classificationName=bk, id=106418874)54.81 - Anwendungssoftware",
                "(classificationName=linseach:mapping)tec",
                "(classificationName=ddc)620.1064",
                "(classificationName=bk, id=106413783)50.33 - Technische Str\u00f6mungsmechanik",
                "(classificationName=linseach:mapping)mat",
                "(classificationName=linseach:mapping)inf",
                "(classificationName=rvk)UF 4000",
                "(classificationName=linseach:mapping)phy"
            ],
            "title": "Numerische Str\u00f6mungsberechnung : schneller Einstieg in ANSYS CFX 18 durch einfache Beispiele",
            "abstract": [
                "Dieses Lehr- und \u00dcbungsbuch richtet sich an zuk\u00fcnftige Anwender von Berechnungssoftware zur Str\u00f6mungsmechanik. Neben den verst\u00e4ndlich dargestellten Grundlagen liegt der Schwerpunkt auf ausf\u00fchrlich behandelten technischen Beispielen mit erg\u00e4nzenden praktischen Hinweisen. Verst\u00e4ndnisfragen inklusive Anwendungen geben dem Einsteiger Sicherheit f\u00fcr grundlegende Zusammenh\u00e4nge. Die 4. Auflage wurde an die neueste Programmversion ANSYS 18.1 angepasst Der Inhalt - Ziel und Aufbau des Buches - Erhaltungsgleichungen der Str\u00f6mungsmechanik - Diskretisierung - Rechennetze - L\u00f6sungsverfahren - Ablauf einer numerischen Str\u00f6mungsberechnung - Drei Anwendungsbeispiele Die Zielgruppen - Studenten der Ingenieurwissenschaften an Hochschulen und Universit\u00e4ten - Ingenieure/Ingenieurinnen, die Str\u00f6mungsberechnungen durchf\u00fchren - Dozenten/Dozentinnen, die sich mit Fragestellungen zur numerischen Str\u00f6mungsberechnung befassen Dr.-Ing. Stefan Lecheler ist Professor f \u00fcr Technische Thermodynamik in der Fakult\u00e4t f\u00fcr Maschinenbau an der Universit\u00e4t der Bundeswehr M\u00fcnchen. Er unterrichtet dort auch die numerische Str\u00f6mungsberechnung im Master-Studiengang. Computer Aided Engineering.",
                "Ziel und Aufbau des Buches -- Erhaltungsgleichungen der Str\u00f6mungsmechanik -- Diskretisierung -- Rechennetze -- L\u00f6sungsverfahren -- Ablauf einer numerischen Str\u00f6mungsberechnung -- Drei Anwendungsbeispiele."
            ],
            "contributor": "Technische Informationsbibliothek (TIB)",
            "creator": "gnd:1051585252",
            "isPartOf": [
                "(collectioncode)ZDB-2-STI",
                "(collectioncode)ZDB-2-SEB"
            ],
            "issued": "2018",
            "language": "http://id.loc.gov/vocabulary/iso639-1/de",
            "license": "commercial licence",
            "medium": "rda:termList/RDACarrierType/1018",
            "dcterms:subject": [
                {
                    "@id": "gnd:4077970-1"
                },
                {
                    "@id": "gnd:4211838-4"
                },
                {
                    "@id": "gnd:4690080-9"
                }
            ],
            "isLike": "doi:10.1007/978-3-658-19192-4",
            "P30128": [
                "B\u00fccher",
                "SpringerLink"
            ],
            "P60163": "Wiesbaden"
        }
    ],
    "@id": "urn:x-arq:DefaultGraphNode",
    "@context": {
        "subject": "http://purl.org/dc/elements/1.1/subject",
        "identifier": "http://purl.org/dc/elements/1.1/identifier",
        "isPartOf": "http://purl.org/dc/terms/isPartOf",
        "contributor": "http://purl.org/dc/terms/contributor",
        "P1053": "http://iflastandards.info/ns/isbd/elements/P1053",
        "abstract": "http://purl.org/dc/terms/abstract",
        "P30128": "http://www.rdaregistry.info/Elements/m/#P30128",
        "license": "http://purl.org/dc/terms/license",
        "isLike": {
            "@id": "http://umbel.org/umbel#isLike",
            "@type": "@id"
        },
        "creator": {
            "@id": "http://purl.org/dc/terms/creator",
            "@type": "@id"
        },
        "description": "http://purl.org/dc/elements/1.1/description",
        "medium": {
            "@id": "http://purl.org/dc/terms/medium",
            "@type": "@id"
        },
        "P60163": "http://www.rdaregistry.info/Elements/u/#P60163",
        "language": {
            "@id": "http://purl.org/dc/terms/language",
            "@type": "@id"
        },
        "issued": "http://purl.org/dc/terms/issued",
        "title": "http://purl.org/dc/elements/1.1/title",
        "publisher": "http://purl.org/dc/elements/1.1/publisher",
        "sameAs": "http://www.w3.org/2002/07/owl#sameAs",
        "umbel": "http://umbel.org/umbel#",
        "rdau": "http://www.rdaregistry.info/Elements/u/#",
        "owl": "http://www.w3.org/2002/07/owl#",
        "dcterms": "http://purl.org/dc/terms/",
        "bibo": "http://purl.org/ontology/bibo/",
        "rdam": "http://www.rdaregistry.info/Elements/m/#",
        "gnd": "http://d-nb.info/gnd/",
        "isbd": "http://iflastandards.info/ns/isbd/elements/",
        "rda": "http://rdvocab.info/",
        "doi": "https://doi.org/"
    }
}